6
    Energy:       0.0000000
  C        2.41929        0.60656        0.00000
  C        1.67147        1.82957        0.00000
  N        1.06529        2.80996        0.00000
  H        2.17700        0.01200        0.89366
  H        2.17700        0.01200       -0.89366
  H        3.49923        0.81714        0.00000
